/batch
/config,noeldb,1     ! force off writing results to database
*get,_wallstrt,active,,time,wall
! ANSYS input file written by Workbench version 2022 R1
! File used for geometry attach: C:\Users\anon99877\AppData\Local\Temp\test_sheet_panel_deformed.tmp\test_sheet_panel_deformed_files\dp59\global\MECH\SYS-2\AssembledModel\SYS-2.pmdb
/title,test_sheet_panel_deformed--Static Structural (B4)
! ****** Begin Custom Load Command Snippet ******
/COM, ACT Extensions:
/COM,     LSDYNA, 2021.1
/COM,     5f463412-bd3e-484b-87e7-cbc0a665e474, wbex
/COM,
! ****** End   Custom Load Command Snippet ******
*DIM,_wb_ProjectScratch_dir,string,248
_wb_ProjectScratch_dir(1) = 'C:\Users\anon99877\AppData\Local\Temp\test_sheet_panel_deformed.tmp\test_sheet_panel_deformed_files\dp59\SYS-2\MECH\'
*DIM,_wb_SolverFiles_dir,string,248
_wb_SolverFiles_dir(1) = 'C:\Users\anon99877\AppData\Local\Temp\test_sheet_panel_deformed.tmp\test_sheet_panel_deformed_files\dp59\SYS-2\MECH\'
*DIM,_wb_userfiles_dir,string,248
_wb_userfiles_dir(1) = 'C:\Users\anon99877\AppData\Local\Temp\test_sheet_panel_deformed.tmp\test_sheet_panel_deformed_files\user_files\'
/com,--- Data in consistent MKS units. See Solving Units in the help system for more information.
/units,MKS
/nopr
/wb,file,start              !  signify a WB generated input file
/prep7
! Turn off shape checking because checks already performed inside WB mesher.
! See help system for more information.
SHPP,OFF,,NOWARN
/nolist
etcon,set             ! allow ANSYS to choose best KEYOP's for 180x elements, resets any applicable keyopt to MAPDL defaults
/com,*********** Nodes for the whole assembly ***********
nblock,3,,10040
(1i9,3e20.9e3)
        1     3.999862679E-02     1.420410466E-03     9.600029833E-01
        2     3.999874177E-02     1.302413759E-03     9.200029815E-01
        3     3.999885634E-02     1.184509485E-03     8.800029788E-01
        4     3.999897058E-02     1.066728961E-03     8.400029754E-01
        5     3.999908462E-02     9.490961093E-04     8.000029715E-01
        6     3.999919856E-02     8.316272288E-04     7.600029672E-01
        7     3.999931245E-02     7.143316325E-04     7.200029628E-01
        8     3.999942634E-02     5.972114159E-04     6.800029585E-01
        9     3.999954028E-02     4.802616313E-04     6.400029543E-01
       10     3.999965426E-02     3.634710156E-04     6.000029506E-01
       11     3.999976832E-02     2.468219900E-04     5.600029470E-01
       12     3.999988245E-02     1.302938181E-04     5.200029446E-01
       13     3.999999657E-02     1.386001804E-05     4.800029426E-01
       14     4.000011078E-02    -1.025059246E-04     4.400029409E-01
       15     4.000022500E-02    -2.188331418E-04     4.000029405E-01
       16     4.000033921E-02    -3.351478372E-04     3.600029404E-01
       17     4.000045344E-02    -4.514754692E-04     3.200029410E-01
       18     4.000056765E-02    -5.678375601E-04     2.800029421E-01
       19     4.000068188E-02    -6.842513685E-04     2.400029435E-01
       20     4.000079613E-02    -8.007288561E-04     2.000029452E-01
! ... 9109 like lines cut
/wb,elem,start            !  set before creation of elements
/com,*********** Elements for Body 1 "SYS\Solid(Static Structural)" ***********
et,1,186
keyo,1,2,1          ! set full integration on SOLID186
eblock,19,solid,,1250
(19i9)
        1        1        1        1        0        0        0        0       20        0        1     1176     2652     2628     2579     1177     2376     2377     2378
     6253     9105     9057     6252     6256     8726     8728     6257     6251     8727     8729     8731
        1        1        1        1        0        0        0        0       20        0        2     1152     1176     2579     2580     1201     1177     2378     2379
     6178     6252     9056     6180     6255     6257     8730     6329     6179     6251     8731     8733
        1        1        1        1        0        0        0        0       20        0        3     1128     1152     2580     2581     1225     1201     2379     2380
     6105     6180     9058     6107     6328     6329     8732     6378     6106     6179     8733     8735
        1        1        1        1        0        0        0        0       20        0        4     1104     1128     2581     2582     1249     1225     2380     2381
     6032     6107     9059     6034     6377     6378     8734     6427     6033     6106     8735     8737
        1        1        1        1        0        0        0        0       20        0        5     1080     1104     2582     2583     1273     1249     2381     2382
     5959     6034     9060     5961     6426     6427     8736     6476     5960     6033     8737     8739
        1        1        1        1        0        0        0        0       20        0        6     1056     1080     2583     2584     1297     1273     2382     2383
     5886     5961     9061     5888     6475     6476     8738     6525     5887     5960     8739     8741
        1        1        1        1        0        0        0        0       20        0        7     1032     1056     2584     2585     1321     1297     2383     2384
     5813     5888     9062     5815     6524     6525     8740     6574     5814     5887     8741     8743
        1        1        1        1        0        0        0        0       20        0        8     1008     1032     2585     2586     1345     1321     2384     2385
     5740     5815     9063     5742     6573     6574     8742     6623     5741     5814     8743     8745
        1        1        1        1        0        0        0        0       20        0        9      984     1008     2586     2587     1369     1345     2385     2386
     5667     5742     9064     5669     6622     6623     8744     6672     5668     5741     8745     8747
        1        1        1        1        0        0        0        0       20        0       10      960      984     2587     2588     1393     1369     2386     2387
     5594     5669     9065     5596     6671     6672     8746     6721     5595     5668     8747     8749
! ... 2481 like lines cut
!Material Id = {53DBA715-1A62-40E2-B5A7-3BF411DE6E8E}
/wb,elem,end               !  done creating elements
/com,*********** Send User Defined Coordinate System(s) ***********
csys,0
toffst,273.15,  ! Temperature offset from absolute zero
/com,*********** Set Reference Temperature ***********
tref,22.
/wb,mat,start              !  starting to send materials
/com,*********** Send Materials ***********
Temperature = 'TEMP' ! Temperature
MP,DENS,1,7850,	! kg m^-3
MP,ALPX,1,1.2e-05,	! C^-1
MP,C,1,434,	! J kg^-1 C^-1
MP,KXX,1,60.5,	! W m^-1 C^-1
MP,RSVX,1,1.7e-07,	! kg m^3 A^-2 s^-3
MP,EX,1,200000000000,	! Pa
MP,NUXY,1,0.3,
MP,MURX,1,10000,
MP,UVID,1,429f43dc-1b8f-4f9d-a797-22d910ac4fe5
MP,UMID,1,59002a79-71c2-428e-906b-55d7dbee100e

/wb,mat,end                !  done sending materials
!************************* Model Summary ********************
!SYS\Solid(Static Structural),	Structural Steel,	matid,	1
!************************* End Model Summary ********************
! get the diagonal of the bounding box. Needed later for other things
*get,_xmin,node,,mnloc,x
*get,_ymin,node,,mnloc,y
*get,_zmin,node,,mnloc,z
*get,_xmax,node,,mxloc,x
*get,_ymax,node,,mxloc,y
*get,_zmax,node,,mxloc,z
_ASMDIAG=(_xmax-_xmin)*(_xmax-_xmin)+(_ymax-_ymin)*(_ymax-_ymin)+(_zmax-_zmin)*(_zmax-_zmin)
_ASMDIAG=SQRT(_ASMDIAG)
/wb,contact,start          !  starting to send contact
/wb,contact,end            !  done creating contacts
CMBLOCK,NODE1_STATIC_STRUCTURAL_,NODE,        1
(8i10)
      2552
CMBLOCK,NODE2_STATIC_STRUCTURAL_,NODE,        1
(8i10)
      2628
CMBLOCK,NODE3_STATIC_STRUCTURAL_,NODE,        1
(8i10)
      2578
/golist
/wb,load,start             !  starting to send loads
/com,*********** Fixed Supports ***********
CMBLOCK,_FIXEDSU,NODE, 7
(8i10)
      4376      3174      3055      5824      5523      4631      6145
cmsel,s,_FIXEDSU
d,all,all
nsel,all
/gst,on,on
fini
*get,_numnode,node,0,count
*get,_numelem,elem,0,count
*get, _MAXELEMNUM, elem, 0, NUM, MAX
*get, _MAXNODENUM, node, 0, NUM, MAX
*get, _MAXELEMTYPE, etyp, 0, NUM, MAX
*get, _MAXREALCONST, real, 0, NUM, MAX
/go
/wb,load,end               !  done creating loads
/com,--- Number of total nodes = %_numnode%
/com,--- Number of contact elements = 0
/com,--- Number of spring elements = 0
/com,--- Number of bearing elements = 0
/com,--- Number of solid elements = 1250
/com,--- Number of condensed parts = 0
/com,--- Number of total elements = %_numelem%
*get,_wallbsol,active,,time,wall
/com,****************************************************************************
/com,*************************    SOLUTION       ********************************
/com,****************************************************************************
/solu
antype,0                   ! static analysis
_thickRatio=  0     ! Ratio of thick parts in the model
eqsl,sparse,,,,,1
cntr,print,1               ! print out contact info and also make no initial contact an error
dmpoption,emat,no             ! Don't combine emat file for DANSYS
dmpoption,esav,no             ! Don't combine esav file for DANSYS
nldiag,cont,iter           ! print out contact info each equilibrium iteration
rescontrol,,none                 ! Do not keep any restart files
/com,****************************************************
/com,******************* SOLVE FOR LS 1 OF 1 ****************
acel,0.,9.80665,0.
/nopr
/gopr
nsub,1,1,1
time,1.
outres,erase
outres,all,none
outres,nsol,all,
outres,rsol,all
outres,eangl,all
outres,etmp,all
outres,veng,all
outres,strs,all,
outres,epel,all,
outres,eppl,all,
outres,cont,all,
! *********** WB SOLVE COMMAND ***********
! check interactive state
*get,ANSINTER_,active,,int
*if,ANSINTER_,ne,0,then
/eof
*endif
solve
/com *************** Write FE CONNECTORS ********* 
CEWRITE,file,ce,,INTE
/com,****************************************************
/com,*************** FINISHED SOLVE FOR LS 1 *************
*get,_wallasol,active,,time,wall
/nopr
*get,_numnode,node,0,count
*get,_numelem,elem,0,count
*get, _MAXELEMNUM, elem, 0, NUM, MAX
*get, _MAXNODENUM, node, 0, NUM, MAX,,,INTERNAL
*get, _MAXELEMTYPE, etyp, 0, NUM, MAX
*get, _MAXREALCONST, real, 0, NUM, MAX
/gopr
/post1
xmlo,ENCODING,ISO-8859-1
xmlo,parm
/xml,parm,xml
fini
/gopr
*get,_walldone,active,,time,wall
_preptime=(_wallbsol-_wallstrt)*3600
_solvtime=(_wallasol-_wallbsol)*3600
_posttime=(_walldone-_wallasol)*3600
_totaltim=(_walldone-_wallstrt)*3600
*get,_dlbratio,active,0,solu,dlbr
*get,_combtime,active,0,solu,comb
*get,_ssmode,active,0,solu,ssmm
*get,_ndofs,active,0,solu,ndof
*get,_sol_end_time,active,0,set,time
*if,_sol_end_time,eq,1.000000,then
/fclean				!clean distributed files
*endif
/com,--- Total number of nodes = %_numnode%
/com,--- Total number of elements = %_numelem%
/com,--- Element load balance ratio = %_dlbratio%
/com,--- Time to combine distributed files = %_combtime%
/com,--- Sparse memory mode = %_ssmode%
/com,--- Number of DOF = %_ndofs%
/wb,file,end               ! done with WB generated input
